@<TRIPOS>MOLECULE
UD1
 64 66 0 0 0
SMALL
GASTEIGER

@<TRIPOS>ATOM
      1  C1'        3.5790   -4.9310   -1.6820 C.3     2  UD12        0.1870
      2  C2'        3.3560   -4.3990   -0.2400 C.3     2  UD12        0.1026
      3  C3'        4.5500   -3.4980    0.1410 C.3     2  UD12        0.1065
      4  C4'        5.8610   -4.2830   -0.0450 C.3     2  UD12        0.1112
      5  C5'        5.9250   -4.8480   -1.4860 C.3     2  UD12        0.1130
      6  C6'        7.1910   -5.6850   -1.6830 C.3     2  UD12        0.0730
      7  C7'        0.8880   -4.2760   -0.2040 C.2     2  UD12        0.2104
      8  C8'       -0.3640   -3.4630   -0.1310 C.3     2  UD12        0.0122
      9  N2'        2.1020   -3.6640   -0.1270 N.am    2  UD12       -0.3053
     10  O1'        3.6250   -3.8530   -2.5990 O.3     2  UD12       -0.2952
     11  O3'        4.4280   -3.0170    1.4570 O.3     2  UD12       -0.3871
     12  O4'        6.9720   -3.4700    0.2450 O.3     2  UD12       -0.3865
     13  O5'        4.7920   -5.6700   -1.7500 O.3     2  UD12       -0.3408
     14  O6'        7.2260   -6.1770   -2.9940 O.3     2  UD12       -0.3924
     15  O7'        0.8090   -5.4880   -0.3250 O.2     2  UD12       -0.2761
     16  N1        -3.5840   -7.8380   -2.8760 N.ar    2  UD12       -0.2715
     17  C2        -4.8020   -8.3210   -3.3370 C.ar    2  UD12        0.3314
     18  N3        -5.7160   -7.4670   -3.9000 N.ar    2  UD12       -0.2749
     19  C4        -5.4480   -6.1310   -4.0150 C.ar    2  UD12        0.2539
     20  C5        -4.2520   -5.6240   -3.5340 C.ar    2  UD12        0.0192
     21  C6        -3.3330   -6.4920   -2.9550 C.ar    2  UD12        0.0171
     22  O2        -5.0760   -9.5060   -3.2420 O.2     2  UD12       -0.2464
     23  O4        -6.2610   -5.3870   -4.5280 O.2     2  UD12       -0.2677
     24  C1B       -2.5770   -8.7780   -2.3030 C.3     2  UD12        0.1679
     25  C2B       -2.1090   -9.7970   -3.3540 C.3     2  UD12        0.1286
     26  O2'       -1.4950  -10.8800   -2.6960 O.3     2  UD12       -0.3847
     27  C3B       -1.0870   -8.9340   -4.0430 C.3     2  UD12        0.1135
     28  C4B       -0.3840   -8.3840   -2.8160 C.3     2  UD12        0.1133
     29  O4B       -1.4020   -8.0860   -1.8680 O.3     2  UD12       -0.3456
     30  O3B       -0.2240   -9.6390   -4.8940 O.3     2  UD12       -0.3864
     31  C5B        0.5300   -7.1880   -3.1120 C.3     2  UD12        0.0836
     32  O5B       -0.2110   -6.0310   -3.4370 O.3     2  UD12       -0.3246
     33  PA         0.2680   -5.3730   -4.9880 P.3     2  UD12        0.2182
     34  O1A       -1.0680   -5.0140   -5.6890 O.3     2  UD12       -0.4371
     35  O2A        1.0250   -6.5080   -6.0580 O.2     2  UD12       -0.5170
     36  O3A        1.1310   -3.8540   -4.9470 O.3     2  UD12       -0.2703
     37  PB         2.3930   -3.8670   -3.7890 P.3     2  UD12        0.2204
     38  O1B        3.1250   -5.2100   -4.5400 O.2     2  UD12       -0.5170
     39  O2B        2.8510   -2.3220   -4.2610 O.3     2  UD12       -0.4371
     40  HC         2.7700   -5.6430   -1.9160 H       2  UD12        0.0933
     41 1HC         3.3450   -5.2590    0.4610 H       2  UD12        0.0575
     42 2HC         4.5640   -2.6180   -0.5380 H       2  UD12        0.0640
     43 3HC         5.8650   -5.1400    0.6640 H       2  UD12        0.0646
     44 4HC         5.9830   -4.0140   -2.2220 H       2  UD12        0.0647
     45 5HC         8.0870   -5.0480   -1.5040 H       2  UD12        0.0584
     46 6HC         7.1840   -6.5320   -0.9640 H       2  UD12        0.0584
     47  HN         2.1280   -2.6450    0.0340 H       2  UD12        0.1492
     48 1HN        -6.6280   -7.8430   -4.2460 H       2  UD12        0.1734
     49 7HC        -4.0330   -4.5640   -3.6030 H       2  UD12        0.0686
     50 8HC        -2.4190   -6.0710   -2.5770 H       2  UD12        0.0813
     51 9HC        -3.0480   -9.3180   -1.4570 H       2  UD12        0.0867
     52 10HC       -2.9050  -10.1920   -4.0200 H       2  UD12        0.0665
     53 11HC       -1.5940   -8.1070   -4.5800 H       2  UD12        0.0647
     54 12HC        0.2590   -9.1840   -2.3820 H       2  UD12        0.0647
     55 13HC        1.0850   -6.9800   -2.1880 H       2  UD12        0.0591
     56 14HC        1.2920   -7.4880   -3.8620 H       2  UD12        0.0591
     57 15HC       -0.3650   -2.7430   -0.9740 H       2  UD12        0.0322
     58 16HC       -0.4040   -2.9090    0.8290 H       2  UD12        0.0322
     59 17HC       -1.2620   -4.1140   -0.2100 H       2  UD12        0.0322
     60  HO         4.4740   -3.7960    2.0700 H       2  UD12        0.2100
     61 1HO         6.9710   -2.7170   -0.4030 H       2  UD12        0.2100
     62 2HO        -1.1970  -11.5130   -3.4000 H       2  UD12        0.2101
     63 3HO        -0.7800   -9.9420   -5.6590 H       2  UD12        0.2100
     64 4HO         8.0670   -6.7000   -3.0700 H       2  UD12        0.2095
@<TRIPOS>BOND
     1    35    33    2
     2    34    33    1
     3    63    30    1
     4    33    36    1
     5    33    32    1
     6    36    37    1
     7    30    27    1
     8    53    27    1
     9    38    37    2
    10    23    19    2
    11    39    37    1
    12    48    18    1
    13    27    25    1
    14    27    28    1
    15    52    25    1
    16    19    18   ar
    17    19    20   ar
    18    18    17   ar
    19    56    31    1
    20    37    10    1
    21    49    20    1
    22    20    21   ar
    23    32    31    1
    24    62    26    1
    25    25    26    1
    26    25    24    1
    27    17    22    2
    28    17    16   ar
    29    31    28    1
    30    31    55    1
    31    64    14    1
    32    14     6    1
    33    21    16   ar
    34    21    50    1
    35    16    24    1
    36    28    54    1
    37    28    29    1
    38    10     1    1
    39    24    29    1
    40    24    51    1
    41    44     5    1
    42    40     1    1
    43    13     1    1
    44    13     5    1
    45     6    45    1
    46     6     5    1
    47     6    46    1
    48     1     2    1
    49     5     4    1
    50    57     8    1
    51    42     3    1
    52    61    12    1
    53    15     7    2
    54     2     9    1
    55     2     3    1
    56     2    41    1
    57    59     8    1
    58     7     8    1
    59     7     9   am
    60     8    58    1
    61     9    47    1
    62     4     3    1
    63     4    12    1
    64     4    43    1
    65     3    11    1
    66    11    60    1
